$DATA1 SOURCE='HSPICE' VERSION='I-2013.12-SP2 64-BIT'
.TITLE '* file: task1.sp'
 tdr              tdf              avg_cur          ck_power          
 temper           alter#            
  3.889e-10        3.611e-10       -1.371e-04       -6.085e-06        
   27.0000        1                 
