$DATA1 SOURCE='HSPICE' VERSION='I-2013.12-SP2 64-BIT'
.TITLE '* file: stimulus.sp'
 avg_cur          temper           alter#            
 -1.764e-05        2.700e+01       1                 
