$DATA1 SOURCE='HSPICE' VERSION='I-2013.12-SP2 64-BIT'
.TITLE '* ee213 project task 3'
 idsat            temper           alter#            
  6.554e-05        2.700e+01       1                 
