$DATA1 SOURCE='HSPICE' VERSION='I-2013.12-SP2 64-BIT'
.TITLE '* ee213 project task 3'
 idsat            temper           alter#            
 -5.294e-07        2.500e+01       1                 
